Circuit: * D:\github-stuff\Programable_ESC_Projects\SIM\LTC7061 test.asc

Limiting rise time of source v3 to 0.0003
Limiting fall time of source v3 to 0.0003
Limiting rise time of source v2 to 0.0003
Limiting fall time of source v2 to 0.0003
Direct Newton iteration for .op point succeeded.
Ignoring empty pin current: Ix(u1:12)
Ignoring empty pin current: Ix(u1:12)
Heightened Def Con from 0.00349002 to 0.00349002
Heightened Def Con from 0.02015 to 0.02015
Heightened Def Con from 0.02349 to 0.02349
Heightened Def Con from 0.03015 to 0.03015
Heightened Def Con from 0.03649 to 0.03649
Heightened Def Con from 0.04649 to 0.04649
Heightened Def Con from 0.04649 to 0.04649

Date: Tue Jul 18 20:22:53 2023
Total elapsed time: 4.995 seconds.

tnom = 27
temp = 27
method = modified trap
totiter = 294045
traniter = 294033
tranpoints = 94454
accept = 65703
rejected = 28758
matrix size = 62
fillins = 4
solver = Normal
Thread vector: 7.3/4.8[2] 2.4/2.7[1] 0.6/1.6[1] 0.2/1.5[1]  2592/500
Matrix Compiler1: 2.26 KB object code size  0.6/0.3/[0.2]
Matrix Compiler2: 3.62 KB object code size  0.3/0.5/[0.3]

